12911963
  -OEChem-03022111193D

 62 66  0     1  0  0  0  0  0999 V2000
    2.1974   -1.7456   -1.2829 S   0  0  2  0  0  0  0  0  0  0  0  0
    2.7281   -1.6268    0.1164 O   0  0  0  0  0  0  0  0  0  0  0  0
    0.9712    2.2867    0.2905 O   0  0  0  0  0  0  0  0  0  0  0  0
   -2.3946   -0.3721   -0.0669 O   0  0  0  0  0  0  0  0  0  0  0  0
   -1.8037    0.4625   -2.1384 O   0  0  0  0  0  0  0  0  0  0  0  0
    5.3529    0.2227   -1.8622 O   0  0  0  0  0  0  0  0  0  0  0  0
    0.7738    0.5030   -1.2403 N   0  0  0  0  0  0  0  0  0  0  0  0
    3.7994    0.8974   -0.2790 N   0  0  0  0  0  0  0  0  0  0  0  0
    2.0024    0.0322   -1.8891 C   0  0  1  0  0  0  0  0  0  0  0  0
    0.3061   -1.8574   -1.1580 C   0  0  0  0  0  0  0  0  0  0  0  0
   -0.1398   -0.4632   -0.6704 C   0  0  2  0  0  0  0  0  0  0  0  0
    2.7263    1.2077   -1.2139 C   0  0  1  0  0  0  0  0  0  0  0  0
    1.3665    1.5293   -0.5665 C   0  0  0  0  0  0  0  0  0  0  0  0
   -0.2154   -2.2404   -2.5522 C   0  0  0  0  0  0  0  0  0  0  0  0
   -0.0547   -2.9523   -0.1508 C   0  0  0  0  0  0  0  0  0  0  0  0
   -1.5237   -0.0624   -1.0691 C   0  0  0  0  0  0  0  0  0  0  0  0
    5.0481    0.4214   -0.6890 C   0  0  0  0  0  0  0  0  0  0  0  0
   -3.7638   -0.0395   -0.3173 C   0  0  0  0  0  0  0  0  0  0  0  0
    6.0499    0.1703    0.3778 C   0  0  0  0  0  0  0  0  0  0  0  0
   -4.6745   -1.0586    0.3354 C   0  0  0  0  0  0  0  0  0  0  0  0
   -4.0814    1.3850    0.0945 C   0  0  0  0  0  0  0  0  0  0  0  0
    7.4121    0.2497    0.0881 C   0  0  0  0  0  0  0  0  0  0  0  0
    5.6289   -0.1443    1.6700 C   0  0  0  0  0  0  0  0  0  0  0  0
   -5.9180   -1.3447   -0.2281 C   0  0  0  0  0  0  0  0  0  0  0  0
   -5.0702    2.1019   -0.5795 C   0  0  0  0  0  0  0  0  0  0  0  0
   -4.2697   -1.7113    1.4998 C   0  0  0  0  0  0  0  0  0  0  0  0
   -3.3852    1.9784    1.1478 C   0  0  0  0  0  0  0  0  0  0  0  0
    8.3532    0.0141    1.0902 C   0  0  0  0  0  0  0  0  0  0  0  0
    6.5702   -0.3797    2.6722 C   0  0  0  0  0  0  0  0  0  0  0  0
    7.9323   -0.3005    2.3821 C   0  0  0  0  0  0  0  0  0  0  0  0
   -6.7568   -2.2834    0.3728 C   0  0  0  0  0  0  0  0  0  0  0  0
   -5.3626    3.4121   -0.2006 C   0  0  0  0  0  0  0  0  0  0  0  0
   -5.1084   -2.6501    2.1006 C   0  0  0  0  0  0  0  0  0  0  0  0
   -3.6778    3.2886    1.5266 C   0  0  0  0  0  0  0  0  0  0  0  0
   -6.3520   -2.9361    1.5370 C   0  0  0  0  0  0  0  0  0  0  0  0
   -4.6665    4.0053    0.8524 C   0  0  0  0  0  0  0  0  0  0  0  0
    1.9517    0.0994   -2.9807 H   0  0  0  0  0  0  0  0  0  0  0  0
   -0.0421   -0.3740    0.4201 H   0  0  0  0  0  0  0  0  0  0  0  0
    3.0321    1.9938   -1.9160 H   0  0  0  0  0  0  0  0  0  0  0  0
    0.0156   -1.4785   -3.3043 H   0  0  0  0  0  0  0  0  0  0  0  0
   -1.3016   -2.3836   -2.5433 H   0  0  0  0  0  0  0  0  0  0  0  0
    0.2327   -3.1799   -2.8969 H   0  0  0  0  0  0  0  0  0  0  0  0
   -1.1413   -3.0577   -0.0601 H   0  0  0  0  0  0  0  0  0  0  0  0
    0.3407   -2.7317    0.8470 H   0  0  0  0  0  0  0  0  0  0  0  0
    0.3519   -3.9239   -0.4542 H   0  0  0  0  0  0  0  0  0  0  0  0
    3.6518    1.0942    0.7068 H   0  0  0  0  0  0  0  0  0  0  0  0
   -3.9406   -0.1313   -1.3990 H   0  0  0  0  0  0  0  0  0  0  0  0
    7.7598    0.4979   -0.9113 H   0  0  0  0  0  0  0  0  0  0  0  0
    4.5800   -0.2449    1.9315 H   0  0  0  0  0  0  0  0  0  0  0  0
   -6.2466   -0.8481   -1.1370 H   0  0  0  0  0  0  0  0  0  0  0  0
   -5.6181    1.6553   -1.4045 H   0  0  0  0  0  0  0  0  0  0  0  0
   -3.3105   -1.4994    1.9640 H   0  0  0  0  0  0  0  0  0  0  0  0
   -2.6172    1.4372    1.6934 H   0  0  0  0  0  0  0  0  0  0  0  0
    9.4139    0.0765    0.8649 H   0  0  0  0  0  0  0  0  0  0  0  0
    6.2432   -0.6314    3.6769 H   0  0  0  0  0  0  0  0  0  0  0  0
    8.6652   -0.4853    3.1621 H   0  0  0  0  0  0  0  0  0  0  0  0
   -7.7246   -2.5067   -0.0663 H   0  0  0  0  0  0  0  0  0  0  0  0
   -6.1316    3.9706   -0.7261 H   0  0  0  0  0  0  0  0  0  0  0  0
   -4.7945   -3.1568    3.0085 H   0  0  0  0  0  0  0  0  0  0  0  0
   -3.1372    3.7502    2.3477 H   0  0  0  0  0  0  0  0  0  0  0  0
   -7.0052   -3.6667    2.0050 H   0  0  0  0  0  0  0  0  0  0  0  0
   -4.8943    5.0254    1.1476 H   0  0  0  0  0  0  0  0  0  0  0  0
  1  2  2  0  0  0  0
  1  9  1  0  0  0  0
  1 10  1  0  0  0  0
  3 13  2  0  0  0  0
  4 16  1  0  0  0  0
  4 18  1  0  0  0  0
  5 16  2  0  0  0  0
  6 17  2  0  0  0  0
  7  9  1  0  0  0  0
  7 11  1  0  0  0  0
  7 13  1  0  0  0  0
  8 12  1  0  0  0  0
  8 17  1  0  0  0  0
  8 46  1  0  0  0  0
  9 12  1  0  0  0  0
  9 37  1  0  0  0  0
 10 11  1  0  0  0  0
 10 14  1  0  0  0  0
 10 15  1  0  0  0  0
 11 16  1  0  0  0  0
 11 38  1  0  0  0  0
 12 13  1  0  0  0  0
 12 39  1  0  0  0  0
 14 40  1  0  0  0  0
 14 41  1  0  0  0  0
 14 42  1  0  0  0  0
 15 43  1  0  0  0  0
 15 44  1  0  0  0  0
 15 45  1  0  0  0  0
 17 19  1  0  0  0  0
 18 20  1  0  0  0  0
 18 21  1  0  0  0  0
 18 47  1  0  0  0  0
 19 22  2  0  0  0  0
 19 23  1  0  0  0  0
 20 24  2  0  0  0  0
 20 26  1  0  0  0  0
 21 25  2  0  0  0  0
 21 27  1  0  0  0  0
 22 28  1  0  0  0  0
 22 48  1  0  0  0  0
 23 29  2  0  0  0  0
 23 49  1  0  0  0  0
 24 31  1  0  0  0  0
 24 50  1  0  0  0  0
 25 32  1  0  0  0  0
 25 51  1  0  0  0  0
 26 33  2  0  0  0  0
 26 52  1  0  0  0  0
 27 34  2  0  0  0  0
 27 53  1  0  0  0  0
 28 30  2  0  0  0  0
 28 54  1  0  0  0  0
 29 30  1  0  0  0  0
 29 55  1  0  0  0  0
 30 56  1  0  0  0  0
 31 35  2  0  0  0  0
 31 57  1  0  0  0  0
 32 36  2  0  0  0  0
 32 58  1  0  0  0  0
 33 35  1  0  0  0  0
 33 59  1  0  0  0  0
 34 36  1  0  0  0  0
 34 60  1  0  0  0  0
 35 61  1  0  0  0  0
 36 62  1  0  0  0  0
M  END
> <PUBCHEM_COMPOUND_CID>
12911963

> <PUBCHEM_CONFORMER_RMSD>
1

> <PUBCHEM_CONFORMER_DIVERSEORDER>
1
18
27
91
65
69
59
37
67
71
39
48
49
42
20
29
36
73
28
47
6
54
24
46
74
57
32
75
85
13
41
12
17
7
93
62
61
51
89
9
55
84
86
90
34
92
53
52
5
22
64
35
25
33
38
16
80
66
11
87
79
15
68
4
72
3
14
40
10
19
50
56
43
26
76
23
94
58
30
63
44
8
31
81
70
83
96
45
95
78
21
77
60
82
88
2

> <PUBCHEM_MMFF94_PARTIAL_CHARGES>
50
1 0.13
10 0.19
11 0.36
12 0.28
13 0.58
16 0.66
17 0.54
18 0.57
19 0.09
2 -0.5
20 -0.14
21 -0.14
22 -0.15
23 -0.15
24 -0.15
25 -0.15
26 -0.15
27 -0.15
28 -0.15
29 -0.15
3 -0.57
30 -0.15
31 -0.15
32 -0.15
33 -0.15
34 -0.15
35 -0.15
36 -0.15
4 -0.43
46 0.37
48 0.15
49 0.15
5 -0.57
50 0.15
51 0.15
52 0.15
53 0.15
54 0.15
55 0.15
56 0.15
57 0.15
58 0.15
59 0.15
6 -0.57
60 0.15
61 0.15
62 0.15
7 -0.59
8 -0.65
9 0.4

> <PUBCHEM_EFFECTIVE_ROTOR_COUNT>
8.6

> <PUBCHEM_PHARMACOPHORE_FEATURES>
11
1 2 acceptor
1 3 acceptor
1 5 acceptor
1 6 acceptor
1 8 donor
3 10 14 15 hydrophobe
4 7 9 12 13 rings
6 19 22 23 28 29 30 rings
6 20 24 26 31 33 35 rings
6 21 25 27 32 34 36 rings
7 1 7 9 10 11 12 13 rings

> <PUBCHEM_HEAVY_ATOM_COUNT>
36

> <PUBCHEM_ATOM_DEF_STEREO_COUNT>
3

> <PUBCHEM_ATOM_UDEF_STEREO_COUNT>
1

> <PUBCHEM_BOND_DEF_STEREO_COUNT>
0

> <PUBCHEM_BOND_UDEF_STEREO_COUNT>
0

> <PUBCHEM_ISOTOPIC_ATOM_COUNT>
0

> <PUBCHEM_COMPONENT_COUNT>
1

> <PUBCHEM_CACTVS_TAUTO_COUNT>
2

> <PUBCHEM_CONFORMER_ID>
00C5055B00000001

> <PUBCHEM_MMFF94_ENERGY>
98.3314

> <PUBCHEM_FEATURE_SELFOVERLAP>
59.439

> <PUBCHEM_SHAPE_FINGERPRINT>
10 15 18270400611281748180
10625338 86 17988638632372814632
11136131 41 16323437377273777547
11646440 116 17775011219080888696
12106331 60 18265628735033904095
12107698 1 18336269049945526337
12422481 6 18190459355674874708
13383668 254 16128659652837761745
13540713 4 17915198835784968551
13560911 23 18260265252435156417
13560911 43 18266186200155332857
13782708 43 15574706985670431952
14068700 675 18189342441213817303
14466204 15 18342459205620522220
14725015 67 18338799039449859969
14747282 305 16733254643267344691
15183329 4 16805318912180042880
16994733 274 13686304577806208626
18603816 31 14346345887293871275
21033648 144 18267304223524970485
21033648 29 17917994949319809348
21130935 74 18334293133462507346
21304303 64 14620800426379415354
21585481 151 18187642446035428546
21814621 53 18059582321941375050
23522609 53 17314537888394565028
23559900 14 17767980740144330663
249057 25 17749682868870247076
249057 3 8286200535741977895
3383291 50 18339923813569674002
392239 28 18196106636537184355
4144715 1 18266756696440503167
5104073 3 18339086973382494523
57527293 21 17313115132705162172
6009941 240 18338515244394828256
6081469 158 16733255850786598511
6695519 79 17631752512046495463
9555976 147 18261116257444687169

> <PUBCHEM_SHAPE_MULTIPOLES>
705.4
21.3
3.74
2.22
27.53
1.86
0.36
-0.94
14.17
-9.9
1.02
2.17
-0.85
0.97

> <PUBCHEM_SHAPE_SELFOVERLAP>
1522.379

> <PUBCHEM_SHAPE_VOLUME>
387.3

> <PUBCHEM_COORDINATE_TYPE>
2
5
10

$$$$
