%chk=methane.chk
# hf/3-21g geom=connectivity

Title Card Required

0 1
 C                 -2.45012464   -1.39638904   -0.01827973
 H                 -2.09347021   -2.40519904   -0.01827973
 H                 -2.09345180   -0.89199085    0.85537177
 H                 -2.09345180   -0.89199085   -0.89193124
 H                 -3.52012464   -1.39637585   -0.01827973

 1 2 1.0 3 1.0 4 1.0 5 1.0
 2
 3
 4
 5

